plots/csv/rotor_angle_dev_bus08_julia.csv
t_s,rotor_angle_dev_rad,bus_voltage_angle_dev_rad,angle_source,angle_is_exact_bus_voltage
0.0,0.0,0.0,Vmag_get_voltage_magnitude_series__angle_get_voltage_angle_series,true
0.01,3.066991105526997e-16,3.066991105526997e-16,Vmag_get_voltage_magnitude_series__angle_get_voltage_angle_series,true
0.02,2.2898349882893785e-16,2.2898349882893785e-16,Vmag_get_voltage_magnitude_series__angle_get_voltage_angle_series,true
0.03,-1.207367539279912e-16,-1.207367539279912e-16,Vmag_get_voltage_magnitude_series__angle_get_voltage_angle_series,true
0.04,2.0539125955566314e-16,2.0539125955566314e-16,Vmag_get_voltage_magnitude_series__angle_get_voltage_angle_series,true
0.05,2.4424906541753594e-16,2.4424906541753594e-16,Vmag_get_voltage_magnitude_series__angle_get_voltage_angle_series,true
0.06,4.718447854655776e-17,4.718447854655776e-17,Vmag_get_voltage_magnitude_series__angle_get_voltage_angle_series,true
0.07,1.8873791418627106e-16,1.8873791418627106e-16,Vmag_get_voltage_magnitude_series__angle_get_voltage_angle_series,true
0.08,-2.1094237467877934e-16,-2.1094237467877934e-16,Vmag_get_voltage_magnitude_series__angle_get_voltage_angle_series,true
0.09,1.6237011735141111e-16,1.6237011735141111e-16,Vmag_get_voltage_magnitude_series__angle_get_voltage_angle_series,true
0.1,-9.71445146547012e-17,-9.71445146547012e-17,Vmag_get_voltage_magnitude_series__angle_get_voltage_angle_series,true
0.11,-0.0010812994698499766,-0.0010812994698499766,Vmag_get_voltage_magnitude_series__angle_get_voltage_angle_series,true
0.12,-0.0011967141609998354,-0.0011967141609998354,Vmag_get_voltage_magnitude_series__angle_get_voltage_angle_series,true
0.13,-0.0010771282791016432,-0.0010771282791016432,Vmag_get_voltage_magnitude_series__angle_get_voltage_angle_series,true
0.14,-0.0010914114734919562,-0.0010914114734919562,Vmag_get_voltage_magnitude_series__angle_get_voltage_angle_series,true
0.15,-0.0011203442966303404,-0.0011203442966303404,Vmag_get_voltage_magnitude_series__angle_get_voltage_angle_series,true
0.16,-0.0011896231657486929,-0.0011896231657486929,Vmag_get_voltage_magnitude_series__angle_get_voltage_angle_series,true
0.17,-0.0012802003788246255,-0.0012802003788246255,Vmag_get_voltage_magnitude_series__angle_get_voltage_angle_series,true
0.18,-0.001390623155639545,-0.001390623155639545,Vmag_get_voltage_magnitude_series__angle_get_voltage_angle_series,true
0.19,-0.0015136867261490187,-0.0015136867261490187,Vmag_get_voltage_magnitude_series__angle_get_voltage_angle_series,true
0.2,-0.0016480518381151773,-0.0016480518381151773,Vmag_get_voltage_magnitude_series__angle_get_voltage_angle_series,true
0.21,-0.0017915608394510037,-0.0017915608394510037,Vmag_get_voltage_magnitude_series__angle_get_voltage_angle_series,true
0.22,-0.0019431853516275054,-0.0019431853516275054,Vmag_get_voltage_magnitude_series__angle_get_voltage_angle_series,true
0.23,-0.0021018836055001254,-0.0021018836055001254,Vmag_get_voltage_magnitude_series__angle_get_voltage_angle_series,true
0.24,-0.002266976712538776,-0.002266976712538776,Vmag_get_voltage_magnitude_series__angle_get_voltage_angle_series,true
0.25,-0.0024379282145229942,-0.0024379282145229942,Vmag_get_voltage_magnitude_series__angle_get_voltage_angle_series,true
0.26,-0.002614365968149178,-0.002614365968149178,Vmag_get_voltage_magnitude_series__angle_get_voltage_angle_series,true
0.27,-0.0027960190508281245,-0.0027960190508281245,Vmag_get_voltage_magnitude_series__angle_get_voltage_angle_series,true
0.28,-0.0029827047394836935,-0.0029827047394836935,Vmag_get_voltage_magnitude_series__angle_get_voltage_angle_series,true
0.29,-0.0031742950287263344,-0.0031742950287263344,Vmag_get_voltage_magnitude_series__angle_get_voltage_angle_series,true
0.3,-0.0033707015149029725,-0.0033707015149029725,Vmag_get_voltage_magnitude_series__angle_get_voltage_angle_series,true
0.31,-0.0035718536089761645,-0.0035718536089761645,Vmag_get_voltage_magnitude_series__angle_get_voltage_angle_series,true
0.32,-0.0037776848600135217,-0.0037776848600135217,Vmag_get_voltage_magnitude_series__angle_get_voltage_angle_series,true
0.33,-0.003988119736376611,-0.003988119736376611,Vmag_get_voltage_magnitude_series__angle_get_voltage_angle_series,true
0.34,-0.004203062638388757,-0.004203062638388757,Vmag_get_voltage_magnitude_series__angle_get_voltage_angle_series,true
0.35,-0.004422390610197899,-0.004422390610197899,Vmag_get_voltage_magnitude_series__angle_get_voltage_angle_series,true
0.36,-0.004645946858905241,-0.004645946858905241,Vmag_get_voltage_magnitude_series__angle_get_voltage_angle_series,true
0.37,-0.004873537673127569,-0.004873537673127569,Vmag_get_voltage_magnitude_series__angle_get_voltage_angle_series,true
0.38,-0.005104930826203747,-0.005104930826203747,Vmag_get_voltage_magnitude_series__angle_get_voltage_angle_series,true
0.39,-0.005339855146753752,-0.005339855146753752,Vmag_get_voltage_magnitude_series__angle_get_voltage_angle_series,true
0.4,-0.005578003558668735,-0.005578003558668735,Vmag_get_voltage_magnitude_series__angle_get_voltage_angle_series,true
0.41,-0.005819034202996414,-0.005819034202996414,Vmag_get_voltage_magnitude_series__angle_get_voltage_angle_series,true
0.42,-0.006062575688843672,-0.006062575688843672,Vmag_get_voltage_magnitude_series__angle_get_voltage_angle_series,true
0.43,-0.006308230863789736,-0.006308230863789736,Vmag_get_voltage_magnitude_series__angle_get_voltage_angle_series,true
0.44,-0.00655558117941199,-0.00655558117941199,Vmag_get_voltage_magnitude_series__angle_get_voltage_angle_series,true
0.45,-0.0068041924109549555,-0.0068041924109549555,Vmag_get_voltage_magnitude_series__angle_get_voltage_angle_series,true
0.46,-0.00705361850554125,-0.00705361850554125,Vmag_get_voltage_magnitude_series__angle_get_voltage_angle_series,true
0.47,-0.007303407059481979,-0.007303407059481979,Vmag_get_voltage_magnitude_series__angle_get_voltage_angle_series,true
0.48,-0.0075531031748840086,-0.0075531031748840086,Vmag_get_voltage_magnitude_series__angle_get_voltage_angle_series,true
0.49,-0.007802253685393704,-0.007802253685393704,Vmag_get_voltage_magnitude_series__angle_get_voltage_angle_series,true
0.5,-0.008050410998246214,-0.008050410998246214,Vmag_get_voltage_magnitude_series__angle_get_voltage_angle_series,true
0.51,-0.008297136150357374,-0.008297136150357374,Vmag_get_voltage_magnitude_series__angle_get_voltage_angle_series,true
0.52,-0.008542002174284623,-0.008542002174284623,Vmag_get_voltage_magnitude_series__angle_get_voltage_angle_series,true
0.53,-0.00878459631491458,-0.00878459631491458,Vmag_get_voltage_magnitude_series__angle_get_voltage_angle_series,true
0.54,-0.009024522553488434,-0.009024522553488434,Vmag_get_voltage_magnitude_series__angle_get_voltage_angle_series,true
0.55,-0.009261403574099256,-0.009261403574099256,Vmag_get_voltage_magnitude_series__angle_get_voltage_angle_series,true
0.56,-0.009494882130452787,-0.009494882130452787,Vmag_get_voltage_magnitude_series__angle_get_voltage_angle_series,true
0.57,-0.009724622829059292,-0.009724622829059292,Vmag_get_voltage_magnitude_series__angle_get_voltage_angle_series,true
0.58,-0.009950312810166015,-0.009950312810166015,Vmag_get_voltage_magnitude_series__angle_get_voltage_angle_series,true
0.59,-0.010171662894680583,-0.010171662894680583,Vmag_get_voltage_magnitude_series__angle_get_voltage_angle_series,true
0.6,-0.010388408124725707,-0.010388408124725707,Vmag_get_voltage_magnitude_series__angle_get_voltage_angle_series,true
0.61,-0.010600308110923872,-0.010600308110923872,Vmag_get_voltage_magnitude_series__angle_get_voltage_angle_series,true
0.62,-0.010807147509730023,-0.010807147509730023,Vmag_get_voltage_magnitude_series__angle_get_voltage_angle_series,true
0.63,-0.011008735879381665,-0.011008735879381665,Vmag_get_voltage_magnitude_series__angle_get_voltage_angle_series,true
0.64,-0.011204907814937878,-0.011204907814937878,Vmag_get_voltage_magnitude_series__angle_get_voltage_angle_series,true
0.65,-0.01139552266097347,-0.01139552266097347,Vmag_get_voltage_magnitude_series__angle_get_voltage_angle_series,true
0.66,-0.011580464267706992,-0.011580464267706992,Vmag_get_voltage_magnitude_series__angle_get_voltage_angle_series,true
0.67,-0.0117596406014302,-0.0117596406014302,Vmag_get_voltage_magnitude_series__angle_get_voltage_angle_series,true
0.68,-0.011932983234622883,-0.011932983234622883,Vmag_get_voltage_magnitude_series__angle_get_voltage_angle_series,true
0.69,-0.012100446821167468,-0.012100446821167468,Vmag_get_voltage_magnitude_series__angle_get_voltage_angle_series,true
0.7,-0.012262008419755178,-0.012262008419755178,Vmag_get_voltage_magnitude_series__angle_get_voltage_angle_series,true
0.71,-0.012417666815552834,-0.012417666815552834,Vmag_get_voltage_magnitude_series__angle_get_voltage_angle_series,true
0.72,-0.012567441768348763,-0.012567441768348763,Vmag_get_voltage_magnitude_series__angle_get_voltage_angle_series,true
0.73,-0.01271137315221637,-0.01271137315221637,Vmag_get_voltage_magnitude_series__angle_get_voltage_angle_series,true
0.74,-0.012849520155845567,-0.012849520155845567,Vmag_get_voltage_magnitude_series__angle_get_voltage_angle_series,true
0.75,-0.012981960276782174,-0.012981960276782174,Vmag_get_voltage_magnitude_series__angle_get_voltage_angle_series,true
0.76,-0.013108788429757177,-0.013108788429757177,Vmag_get_voltage_magnitude_series__angle_get_voltage_angle_series,true
0.77,-0.01323011592137678,-0.01323011592137678,Vmag_get_voltage_magnitude_series__angle_get_voltage_angle_series,true
0.78,-0.013346069360895321,-0.013346069360895321,Vmag_get_voltage_magnitude_series__angle_get_voltage_angle_series,true
0.79,-0.013456789668698368,-0.013456789668698368,Vmag_get_voltage_magnitude_series__angle_get_voltage_angle_series,true
0.8,-0.01356243086476738,-0.01356243086476738,Vmag_get_voltage_magnitude_series__angle_get_voltage_angle_series,true
0.81,-0.013663158997704688,-0.013663158997704688,Vmag_get_voltage_magnitude_series__angle_get_voltage_angle_series,true
0.82,-0.013759150973285552,-0.013759150973285552,Vmag_get_voltage_magnitude_series__angle_get_voltage_angle_series,true
0.83,-0.0138505933179749,-0.0138505933179749,Vmag_get_voltage_magnitude_series__angle_get_voltage_angle_series,true
0.84,-0.013937681064816193,-0.013937681064816193,Vmag_get_voltage_magnitude_series__angle_get_voltage_angle_series,true
0.85,-0.014020616469025356,-0.014020616469025356,Vmag_get_voltage_magnitude_series__angle_get_voltage_angle_series,true
0.86,-0.01409960786586253,-0.01409960786586253,Vmag_get_voltage_magnitude_series__angle_get_voltage_angle_series,true
0.87,-0.01417486842434287,-0.01417486842434287,Vmag_get_voltage_magnitude_series__angle_get_voltage_angle_series,true
0.88,-0.01424661495341173,-0.01424661495341173,Vmag_get_voltage_magnitude_series__angle_get_voltage_angle_series,true
0.89,-0.014315066761191696,-0.014315066761191696,Vmag_get_voltage_magnitude_series__angle_get_voltage_angle_series,true
0.9,-0.014380444422968874,-0.014380444422968874,Vmag_get_voltage_magnitude_series__angle_get_voltage_angle_series,true
0.91,-0.014442968723397438,-0.014442968723397438,Vmag_get_voltage_magnitude_series__angle_get_voltage_angle_series,true
0.92,-0.014502859503580037,-0.014502859503580037,Vmag_get_voltage_magnitude_series__angle_get_voltage_angle_series,true
0.93,-0.014560334596579013,-0.014560334596579013,Vmag_get_voltage_magnitude_series__angle_get_voltage_angle_series,true
0.94,-0.01461560885310711,-0.01461560885310711,Vmag_get_voltage_magnitude_series__angle_get_voltage_angle_series,true
0.95,-0.01466889310034792,-0.01466889310034792,Vmag_get_voltage_magnitude_series__angle_get_voltage_angle_series,true
0.96,-0.014720393282188162,-0.014720393282188162,Vmag_get_voltage_magnitude_series__angle_get_voltage_angle_series,true
0.97,-0.014770309548557237,-0.014770309548557237,Vmag_get_voltage_magnitude_series__angle_get_voltage_angle_series,true
0.98,-0.01481883547120532,-0.01481883547120532,Vmag_get_voltage_magnitude_series__angle_get_voltage_angle_series,true
0.99,-0.014866157313138532,-0.014866157313138532,Vmag_get_voltage_magnitude_series__angle_get_voltage_angle_series,true
1.0,-0.014912453321306642,-0.014912453321306642,Vmag_get_voltage_magnitude_series__angle_get_voltage_angle_series,true
1.01,-0.014957893157932306,-0.014957893157932306,Vmag_get_voltage_magnitude_series__angle_get_voltage_angle_series,true
1.02,-0.015002637330749866,-0.015002637330749866,Vmag_get_voltage_magnitude_series__angle_get_voltage_angle_series,true
1.03,-0.015046836759541497,-0.015046836759541497,Vmag_get_voltage_magnitude_series__angle_get_voltage_angle_series,true
1.04,-0.015090632364955735,-0.015090632364955735,Vmag_get_voltage_magnitude_series__angle_get_voltage_angle_series,true
1.05,-0.015134154752644763,-0.015134154752644763,Vmag_get_voltage_magnitude_series__angle_get_voltage_angle_series,true
1.06,-0.015177523979442682,-0.015177523979442682,Vmag_get_voltage_magnitude_series__angle_get_voltage_angle_series,true
1.07,-0.01522084935980638,-0.01522084935980638,Vmag_get_voltage_magnitude_series__angle_get_voltage_angle_series,true
1.08,-0.015264229382616321,-0.015264229382616321,Vmag_get_voltage_magnitude_series__angle_get_voltage_angle_series,true
1.09,-0.015307751664040593,-0.015307751664040593,Vmag_get_voltage_magnitude_series__angle_get_voltage_angle_series,true
1.1,-0.015351492982193966,-0.015351492982193966,Vmag_get_voltage_magnitude_series__angle_get_voltage_angle_series,true
1.11,-0.015395519385150972,-0.015395519385150972,Vmag_get_voltage_magnitude_series__angle_get_voltage_angle_series,true
1.12,-0.015439886327218334,-0.015439886327218334,Vmag_get_voltage_magnitude_series__angle_get_voltage_angle_series,true
1.13,-0.015484638921688231,-0.015484638921688231,Vmag_get_voltage_magnitude_series__angle_get_voltage_angle_series,true
1.14,-0.015529812184651486,-0.015529812184651486,Vmag_get_voltage_magnitude_series__angle_get_voltage_angle_series,true
1.15,-0.015575431369191192,-0.015575431369191192,Vmag_get_voltage_magnitude_series__angle_get_voltage_angle_series,true
1.16,-0.015621512358468792,-0.015621512358468792,Vmag_get_voltage_magnitude_series__angle_get_voltage_angle_series,true
1.17,-0.015668062050600076,-0.015668062050600076,Vmag_get_voltage_magnitude_series__angle_get_voltage_angle_series,true
1.18,-0.015715078848386195,-0.015715078848386195,Vmag_get_voltage_magnitude_series__angle_get_voltage_angle_series,true
1.19,-0.015762553133041184,-0.015762553133041184,Vmag_get_voltage_magnitude_series__angle_get_voltage_angle_series,true
1.2,-0.015810467786928906,-0.015810467786928906,Vmag_get_voltage_magnitude_series__angle_get_voltage_angle_series,true
1.21,-0.015858798770679285,-0.015858798770679285,Vmag_get_voltage_magnitude_series__angle_get_voltage_angle_series,true
1.22,-0.015907515656612185,-0.015907515656612185,Vmag_get_voltage_magnitude_series__angle_get_voltage_angle_series,true
1.23,-0.01595658225682667,-0.01595658225682667,Vmag_get_voltage_magnitude_series__angle_get_voltage_angle_series,true
1.24,-0.016005957197025345,-0.016005957197025345,Vmag_get_voltage_magnitude_series__angle_get_voltage_angle_series,true
1.25,-0.01605559454583431,-0.01605559454583431,Vmag_get_voltage_magnitude_series__angle_get_voltage_angle_series,true
1.26,-0.016105444429216846,-0.016105444429216846,Vmag_get_voltage_magnitude_series__angle_get_voltage_angle_series,true
1.27,-0.01615545362976724,-0.01615545362976724,Vmag_get_voltage_magnitude_series__angle_get_voltage_angle_series,true
1.28,-0.016205566229158492,-0.016205566229158492,Vmag_get_voltage_magnitude_series__angle_get_voltage_angle_series,true
1.29,-0.016255724176646464,-0.016255724176646464,Vmag_get_voltage_magnitude_series__angle_get_voltage_angle_series,true
1.3,-0.01630586790575291,-0.01630586790575291,Vmag_get_voltage_magnitude_series__angle_get_voltage_angle_series,true
1.31,-0.016355936904363988,-0.016355936904363988,Vmag_get_voltage_magnitude_series__angle_get_voltage_angle_series,true
1.32,-0.016405870258961865,-0.016405870258961865,Vmag_get_voltage_magnitude_series__angle_get_voltage_angle_series,true
1.33,-0.01645560721473301,-0.01645560721473301,Vmag_get_voltage_magnitude_series__angle_get_voltage_angle_series,true
1.34,-0.01650508765767681,-0.01650508765767681,Vmag_get_voltage_magnitude_series__angle_get_voltage_angle_series,true
1.35,-0.01655425262315386,-0.01655425262315386,Vmag_get_voltage_magnitude_series__angle_get_voltage_angle_series,true
1.36,-0.016603044735413502,-0.016603044735413502,Vmag_get_voltage_magnitude_series__angle_get_voltage_angle_series,true
1.37,-0.0166514086293936,-0.0166514086293936,Vmag_get_voltage_magnitude_series__angle_get_voltage_angle_series,true
1.38,-0.016699291350321357,-0.016699291350321357,Vmag_get_voltage_magnitude_series__angle_get_voltage_angle_series,true
1.39,-0.01674664269158082,-0.01674664269158082,Vmag_get_voltage_magnitude_series__angle_get_voltage_angle_series,true
1.4,-0.016793415528293897,-0.016793415528293897,Vmag_get_voltage_magnitude_series__angle_get_voltage_angle_series,true
1.41,-0.016839566088017354,-0.016839566088017354,Vmag_get_voltage_magnitude_series__angle_get_voltage_angle_series,true
1.42,-0.01688505419673469,-0.01688505419673469,Vmag_get_voltage_magnitude_series__angle_get_voltage_angle_series,true
1.43,-0.0169298434871627,-0.0169298434871627,Vmag_get_voltage_magnitude_series__angle_get_voltage_angle_series,true
1.44,-0.01697390156215197,-0.01697390156215197,Vmag_get_voltage_magnitude_series__angle_get_voltage_angle_series,true
1.45,-0.017017200131944864,-0.017017200131944864,Vmag_get_voltage_magnitude_series__angle_get_voltage_angle_series,true
1.46,-0.017059715098078194,-0.017059715098078194,Vmag_get_voltage_magnitude_series__angle_get_voltage_angle_series,true
1.47,-0.01710142661821214,-0.01710142661821214,Vmag_get_voltage_magnitude_series__angle_get_voltage_angle_series,true
1.48,-0.01714231913164815,-0.01714231913164815,Vmag_get_voltage_magnitude_series__angle_get_voltage_angle_series,true
1.49,-0.017182381328920703,-0.017182381328920703,Vmag_get_voltage_magnitude_series__angle_get_voltage_angle_series,true
1.5,-0.01722160613264226,-0.01722160613264226,Vmag_get_voltage_magnitude_series__angle_get_voltage_angle_series,true
1.51,-0.017259990599951935,-0.017259990599951935,Vmag_get_voltage_magnitude_series__angle_get_voltage_angle_series,true
1.52,-0.017297535830464637,-0.017297535830464637,Vmag_get_voltage_magnitude_series__angle_get_voltage_angle_series,true
1.53,-0.01733424683050201,-0.01733424683050201,Vmag_get_voltage_magnitude_series__angle_get_voltage_angle_series,true
1.54,-0.017370132351235558,-0.017370132351235558,Vmag_get_voltage_magnitude_series__angle_get_voltage_angle_series,true
1.55,-0.01740520471919862,-0.01740520471919862,Vmag_get_voltage_magnitude_series__angle_get_voltage_angle_series,true
1.56,-0.017439479619249697,-0.017439479619249697,Vmag_get_voltage_magnitude_series__angle_get_voltage_angle_series,true
1.57,-0.017472975888415128,-0.017472975888415128,Vmag_get_voltage_magnitude_series__angle_get_voltage_angle_series,true
1.58,-0.017505715275266717,-0.017505715275266717,Vmag_get_voltage_magnitude_series__angle_get_voltage_angle_series,true
1.59,-0.01753772218354546,-0.01753772218354546,Vmag_get_voltage_magnitude_series__angle_get_voltage_angle_series,true
1.6,-0.017569023424748965,-0.017569023424748965,Vmag_get_voltage_magnitude_series__angle_get_voltage_angle_series,true
1.61,-0.017599647933783415,-0.017599647933783415,Vmag_get_voltage_magnitude_series__angle_get_voltage_angle_series,true
1.62,-0.017629626504059796,-0.017629626504059796,Vmag_get_voltage_magnitude_series__angle_get_voltage_angle_series,true
1.63,-0.017658991500643505,-0.017658991500643505,Vmag_get_voltage_magnitude_series__angle_get_voltage_angle_series,true
1.64,-0.017687776578093374,-0.017687776578093374,Vmag_get_voltage_magnitude_series__angle_get_voltage_angle_series,true
1.65,-0.01771601640658689,-0.01771601640658689,Vmag_get_voltage_magnitude_series__angle_get_voltage_angle_series,true
1.66,-0.01774374637771521,-0.01774374637771521,Vmag_get_voltage_magnitude_series__angle_get_voltage_angle_series,true
1.67,-0.017771002347181236,-0.017771002347181236,Vmag_get_voltage_magnitude_series__angle_get_voltage_angle_series,true
1.68,-0.017797820355158818,-0.017797820355158818,Vmag_get_voltage_magnitude_series__angle_get_voltage_angle_series,true
1.69,-0.017824236368454687,-0.017824236368454687,Vmag_get_voltage_magnitude_series__angle_get_voltage_angle_series,true
1.7,-0.01785028603744819,-0.01785028603744819,Vmag_get_voltage_magnitude_series__angle_get_voltage_angle_series,true
1.71,-0.017876004448526075,-0.017876004448526075,Vmag_get_voltage_magnitude_series__angle_get_voltage_angle_series,true
1.72,-0.01790142590808308,-0.01790142590808308,Vmag_get_voltage_magnitude_series__angle_get_voltage_angle_series,true
1.73,-0.017926583724552518,-0.017926583724552518,Vmag_get_voltage_magnitude_series__angle_get_voltage_angle_series,true
1.74,-0.017951510017175532,-0.017951510017175532,Vmag_get_voltage_magnitude_series__angle_get_voltage_angle_series,true
1.75,-0.017976235536073665,-0.017976235536073665,Vmag_get_voltage_magnitude_series__angle_get_voltage_angle_series,true
1.76,-0.01800078949737318,-0.01800078949737318,Vmag_get_voltage_magnitude_series__angle_get_voltage_angle_series,true
1.77,-0.018025199442088344,-0.018025199442088344,Vmag_get_voltage_magnitude_series__angle_get_voltage_angle_series,true
1.78,-0.018049491105080535,-0.018049491105080535,Vmag_get_voltage_magnitude_series__angle_get_voltage_angle_series,true
1.79,-0.018073688310742554,-0.018073688310742554,Vmag_get_voltage_magnitude_series__angle_get_voltage_angle_series,true
1.8,-0.018097812879936583,-0.018097812879936583,Vmag_get_voltage_magnitude_series__angle_get_voltage_angle_series,true
1.81,-0.018121884557287235,-0.018121884557287235,Vmag_get_voltage_magnitude_series__angle_get_voltage_angle_series,true
1.82,-0.018145920962627418,-0.018145920962627418,Vmag_get_voltage_magnitude_series__angle_get_voltage_angle_series,true
1.83,-0.01816993754870787,-0.01816993754870787,Vmag_get_voltage_magnitude_series__angle_get_voltage_angle_series,true
1.84,-0.01819394758830733,-0.01819394758830733,Vmag_get_voltage_magnitude_series__angle_get_voltage_angle_series,true
1.85,-0.018217962170501992,-0.018217962170501992,Vmag_get_voltage_magnitude_series__angle_get_voltage_angle_series,true
1.86,-0.018241990215980382,-0.018241990215980382,Vmag_get_voltage_magnitude_series__angle_get_voltage_angle_series,true
1.87,-0.01826603851011878,-0.01826603851011878,Vmag_get_voltage_magnitude_series__angle_get_voltage_angle_series,true
1.88,-0.018290111743784025,-0.018290111743784025,Vmag_get_voltage_magnitude_series__angle_get_voltage_angle_series,true
1.89,-0.018314212578979385,-0.018314212578979385,Vmag_get_voltage_magnitude_series__angle_get_voltage_angle_series,true
1.9,-0.01833834171573579,-0.01833834171573579,Vmag_get_voltage_magnitude_series__angle_get_voltage_angle_series,true
1.91,-0.018362497977668167,-0.018362497977668167,Vmag_get_voltage_magnitude_series__angle_get_voltage_angle_series,true
1.92,-0.01838667840931817,-0.01838667840931817,Vmag_get_voltage_magnitude_series__angle_get_voltage_angle_series,true
1.93,-0.018410878375358482,-0.018410878375358482,Vmag_get_voltage_magnitude_series__angle_get_voltage_angle_series,true
1.94,-0.018435091677909767,-0.018435091677909767,Vmag_get_voltage_magnitude_series__angle_get_voltage_angle_series,true
1.95,-0.018459310673292498,-0.018459310673292498,Vmag_get_voltage_magnitude_series__angle_get_voltage_angle_series,true
1.96,-0.018483526397579535,-0.018483526397579535,Vmag_get_voltage_magnitude_series__angle_get_voltage_angle_series,true
1.97,-0.018507728700856266,-0.018507728700856266,Vmag_get_voltage_magnitude_series__angle_get_voltage_angle_series,true
1.98,-0.018531906375490712,-0.018531906375490712,Vmag_get_voltage_magnitude_series__angle_get_voltage_angle_series,true
1.99,-0.018556047298289382,-0.018556047298289382,Vmag_get_voltage_magnitude_series__angle_get_voltage_angle_series,true
...
